data_AlPO-17
_audit_creation_method         'generated by CrystalMaker 9.2.9'
_cell_length_a                  13.0894(0)
_cell_length_b                  13.0894(0)
_cell_length_c                  15.3299(0)
_cell_angle_alpha               90.0000(0)
_cell_angle_beta                90.0000(0)
_cell_angle_gamma              120.0000(0)

_symmetry_space_group_name_H-M     'P 63/m'
_symmetry_Int_Tables_number         176
_symmetry_cell_setting             hexagonal
loop_
_symmetry_equiv_pos_as_xyz
'+x,+y,+z'
'-y,+x-y,+z'
'-x+y,-x,+z'
'-x,-y,1/2+z'
'+y,-x+y,1/2+z'
'+x-y,+x,1/2+z'
'-x,-y,-z'
'+y,-x+y,-z'
'+x-y,+x,-z'
'+x,+y,1/2-z'
'-y,+x-y,1/2-z'
'-x+y,-x,1/2-z'

loop_
_atom_site_label
_atom_site_type_symbol
_atom_site_occupancy
_atom_site_fract_x
_atom_site_fract_y
_atom_site_fract_z
_atom_site_U_iso_or_equiv
   Al1    Al 1.0000      0.7633    0.9990    0.1009    0.0140
   Al2    Al 1.0000      0.0940    0.4220    0.2500    0.0090
    O1    O  1.0000      0.0200    0.3450    0.1575    0.0110
    O2    O  1.0000      0.0920    0.2009    0.1140    0.0200
    O3    O  1.0000      0.1330    0.2544    0.6261    0.0190
    O4    O  1.0000      0.2774    0.0030    1.0050    0.0220
    O5    O  1.0000      0.2370    0.4573    0.2500    0.0130
    O6    O  1.0000      0.4600    0.9159    0.2500    0.0130
   O1'    O  1.0000      0.6490    0.9650    0.1685    0.0250
    P1    P  1.0000      0.9978    0.2383    0.1012    0.0100
    P2    P  1.0000      0.5730    0.9090    0.2500    0.0140

